test/input/us98206_501.glm
######################################################### BEGIN########################################################
# filename... powerflow.glm 

clock { 
	 timestamp '2000-01-01 0:00:00';
	 timezone EST+5EDT;
}
%ifdef player
module tape;
object player {
	parent load:58;
	property phaseB_VA;
	file $player;
	loop 100;
}
%endif

#######################################################
# modules
module powerflow;


# Conductor: #2 ACSR
object overhead_line_conductor:512 {
	geometric_mean_radius 1.0 ft;
	resistance 5.28;
}

# Conductor: #6 CU SOL
object overhead_line_conductor:519 {
	geometric_mean_radius 0.201 ft;
	resistance 1.0613;
}

# Conductor: #2 AL UG
object overhead_line_conductor:514 {
	geometric_mean_radius 1.0 ft;
	resistance 5.28;
}

# Conductor: 336 AAC
object overhead_line_conductor:531 {
	geometric_mean_radius 0.666 ft;
	resistance 3.5165;
}

# Conductor: 1/0 AL UG
object overhead_line_conductor:522 {
	geometric_mean_radius 1.0 ft;
	resistance 5.28;
}

# Conductor: 350 AL UG
object overhead_line_conductor:535 {
	geometric_mean_radius 1.0 ft;
	resistance 5.28;
}

# Conductor: #4 CU SOL
object overhead_line_conductor:518 {
	geometric_mean_radius 0.254 ft;
	resistance 1.3411;
}

# Conductor: 1/0 AL JKT UG
object overhead_line_conductor:521 {
	geometric_mean_radius 1.0 ft;
	resistance 5.28;
}

# Conductor: #4 ACSR
object overhead_line_conductor:517 {
	geometric_mean_radius 1.0 ft;
	resistance 5.28;
}

# Conductor: 3/0 AAC
object overhead_line_conductor:528 {
	geometric_mean_radius 0.464 ft;
	resistance 2.4499;
}

# Conductor: #2 CU UG
object overhead_line_conductor:516 {
	geometric_mean_radius 1.0 ft;
	resistance 5.28;
}

# Conductor: 2/0 CU
object overhead_line_conductor:525 {
	geometric_mean_radius 0.414 ft;
	resistance 2.1859;
}

# Conductor: 1000 AL UG
object overhead_line_conductor:524 {
	geometric_mean_radius 1.0 ft;
	resistance 5.28;
}

# Conductor: #2 AL JKT UG
object overhead_line_conductor:513 {
	geometric_mean_radius 1.0 ft;
	resistance 5.28;
}

# Conductor: 500 AL UG NEUT
object overhead_line_conductor:537 {
	geometric_mean_radius 1.0 ft;
	resistance 5.28;
}

# Line Spacing
object line_spacing:651 {
	distance_AtoN 111.0;
}

# Line Spacing
object line_spacing:653 {
	distance_AtoB 49.5;
	distance_BtoC 49.5;
	distance_AtoC 49.5;
	distance_AtoN 105.0;
	distance_BtoN 105.0;
	distance_CtoN 105.0;
}

# Line Spacing
object line_spacing:655 {
	distance_BtoN 111.0;
}

# Line Spacing
object line_spacing:657 {
	distance_CtoN 111.0;
}

# Line Spacing
object line_spacing:659 {
	distance_AtoN 0.0;
}

# Line Spacing
object line_spacing:661 {
	distance_AtoB 64.5;
	distance_BtoC 64.5;
	distance_AtoC 64.5;
	distance_AtoN 107.0;
	distance_BtoN 107.0;
	distance_CtoN 107.0;
}

# Line Spacing
object line_spacing:663 {
	distance_BtoN 0.0;
}

# Line Spacing
object line_spacing:666 {
	distance_CtoN 0.0;
}

# Line Spacing
object line_spacing:670 {
	distance_AtoB 0.0;
	distance_BtoC 0.0;
	distance_AtoC 0.0;
	distance_AtoN 0.0;
	distance_BtoN 0.0;
	distance_CtoN 0.0;
}

# Line Spacing
object line_spacing:673 {
	distance_BtoC 0.0;
	distance_BtoN 0.0;
	distance_CtoN 0.0;
}

# Line Spacing
object line_spacing:677 {
	distance_AtoB 71.5;
	distance_BtoC 71.5;
	distance_AtoC 71.5;
	distance_AtoN 110.0;
	distance_BtoN 110.0;
	distance_CtoN 110.0;
}

# Line Spacing
object line_spacing:682 {
	distance_BtoN 74.0;
}

# Line Spacing
object line_spacing:688 {
	distance_AtoN 74.0;
}

# Line Spacing
object line_spacing:692 {
	distance_AtoC 0.0;
	distance_AtoN 0.0;
	distance_CtoN 0.0;
}

# Line Spacing
object line_spacing:695 {
	distance_AtoB 56.5;
	distance_BtoC 56.5;
	distance_AtoC 56.5;
	distance_AtoN 108.0;
	distance_BtoN 108.0;
	distance_CtoN 108.0;
}

# Line Spacing
object line_spacing:706 {
	distance_AtoB 42.5;
	distance_BtoC 42.5;
	distance_AtoC 42.5;
	distance_AtoN 101.0;
	distance_BtoN 101.0;
	distance_CtoN 101.0;
}

# Line Configuration
object line_configuration:652 {
	phaseA_conductor overhead_line_conductor:512;
	phaseN_conductor overhead_line_conductor:512;
	line_spacing line_spacing:651;
}

# Line Configuration
object line_configuration:654 {
	phaseA_conductor overhead_line_conductor:512;
	phaseB_conductor overhead_line_conductor:512;
	phaseC_conductor overhead_line_conductor:512;
	phaseN_conductor overhead_line_conductor:512;
	line_spacing line_spacing:653;
}

# Line Configuration
object line_configuration:656 {
	phaseB_conductor overhead_line_conductor:519;
	phaseN_conductor overhead_line_conductor:519;
	line_spacing line_spacing:655;
}

# Line Configuration
object line_configuration:658 {
	phaseC_conductor overhead_line_conductor:512;
	phaseN_conductor overhead_line_conductor:512;
	line_spacing line_spacing:657;
}

# Line Configuration
object line_configuration:660 {
	phaseA_conductor overhead_line_conductor:514;
	phaseN_conductor overhead_line_conductor:514;
	line_spacing line_spacing:659;
}

# Line Configuration
object line_configuration:662 {
	phaseA_conductor overhead_line_conductor:512;
	phaseB_conductor overhead_line_conductor:512;
	phaseC_conductor overhead_line_conductor:512;
	phaseN_conductor overhead_line_conductor:512;
	line_spacing line_spacing:661;
}

# Line Configuration
object line_configuration:664 {
	phaseB_conductor overhead_line_conductor:514;
	phaseN_conductor overhead_line_conductor:514;
	line_spacing line_spacing:663;
}

# Line Configuration
object line_configuration:665 {
	phaseA_conductor overhead_line_conductor:531;
	phaseB_conductor overhead_line_conductor:531;
	phaseC_conductor overhead_line_conductor:531;
	phaseN_conductor overhead_line_conductor:528;
	line_spacing line_spacing:653;
}

# Line Configuration
object line_configuration:667 {
	phaseC_conductor overhead_line_conductor:522;
	phaseN_conductor overhead_line_conductor:522;
	line_spacing line_spacing:666;
}

# Line Configuration
object line_configuration:668 {
	phaseA_conductor overhead_line_conductor:522;
	phaseN_conductor overhead_line_conductor:522;
	line_spacing line_spacing:659;
}

# Line Configuration
object line_configuration:669 {
	phaseB_conductor overhead_line_conductor:522;
	phaseN_conductor overhead_line_conductor:522;
	line_spacing line_spacing:663;
}

# Line Configuration
object line_configuration:671 {
	phaseA_conductor overhead_line_conductor:522;
	phaseB_conductor overhead_line_conductor:522;
	phaseC_conductor overhead_line_conductor:522;
	phaseN_conductor overhead_line_conductor:522;
	line_spacing line_spacing:670;
}

# Line Configuration
object line_configuration:672 {
	phaseA_conductor overhead_line_conductor:535;
	phaseB_conductor overhead_line_conductor:535;
	phaseC_conductor overhead_line_conductor:535;
	phaseN_conductor overhead_line_conductor:535;
	line_spacing line_spacing:670;
}

# Line Configuration
object line_configuration:674 {
	phaseB_conductor overhead_line_conductor:522;
	phaseC_conductor overhead_line_conductor:522;
	phaseN_conductor overhead_line_conductor:522;
	line_spacing line_spacing:673;
}

# Line Configuration
object line_configuration:675 {
	phaseB_conductor overhead_line_conductor:512;
	phaseN_conductor overhead_line_conductor:512;
	line_spacing line_spacing:655;
}

# Line Configuration
object line_configuration:676 {
	phaseB_conductor overhead_line_conductor:518;
	phaseN_conductor overhead_line_conductor:518;
	line_spacing line_spacing:655;
}

# Line Configuration
object line_configuration:678 {
	phaseA_conductor overhead_line_conductor:512;
	phaseB_conductor overhead_line_conductor:512;
	phaseC_conductor overhead_line_conductor:512;
	phaseN_conductor overhead_line_conductor:512;
	line_spacing line_spacing:677;
}

# Line Configuration
object line_configuration:679 {
	phaseB_conductor overhead_line_conductor:521;
	phaseN_conductor overhead_line_conductor:521;
	line_spacing line_spacing:663;
}

# Line Configuration
object line_configuration:680 {
	phaseC_conductor overhead_line_conductor:531;
	phaseN_conductor overhead_line_conductor:528;
	line_spacing line_spacing:657;
}

# Line Configuration
object line_configuration:681 {
	phaseA_conductor overhead_line_conductor:531;
	phaseN_conductor overhead_line_conductor:528;
	line_spacing line_spacing:651;
}

# Line Configuration
object line_configuration:683 {
	phaseB_conductor overhead_line_conductor:517;
	phaseN_conductor overhead_line_conductor:517;
	line_spacing line_spacing:682;
}

# Line Configuration
object line_configuration:684 {
	phaseA_conductor overhead_line_conductor:531;
	phaseB_conductor overhead_line_conductor:531;
	phaseC_conductor overhead_line_conductor:531;
	phaseN_conductor overhead_line_conductor:528;
	line_spacing line_spacing:677;
}

# Line Configuration
object line_configuration:685 {
	phaseC_conductor overhead_line_conductor:528;
	phaseN_conductor overhead_line_conductor:512;
	line_spacing line_spacing:657;
}

# Line Configuration
object line_configuration:686 {
	phaseC_conductor overhead_line_conductor:521;
	phaseN_conductor overhead_line_conductor:521;
	line_spacing line_spacing:666;
}

# Line Configuration
object line_configuration:687 {
	phaseA_conductor overhead_line_conductor:528;
	phaseB_conductor overhead_line_conductor:528;
	phaseC_conductor overhead_line_conductor:528;
	phaseN_conductor overhead_line_conductor:512;
	line_spacing line_spacing:653;
}

# Line Configuration
object line_configuration:689 {
	phaseA_conductor overhead_line_conductor:519;
	phaseN_conductor overhead_line_conductor:519;
	line_spacing line_spacing:688;
}

# Line Configuration
object line_configuration:690 {
	phaseA_conductor overhead_line_conductor:516;
	phaseN_conductor overhead_line_conductor:516;
	line_spacing line_spacing:659;
}

# Line Configuration
object line_configuration:691 {
	phaseA_conductor overhead_line_conductor:519;
	phaseN_conductor overhead_line_conductor:519;
	line_spacing line_spacing:651;
}

# Line Configuration
object line_configuration:693 {
	phaseA_conductor overhead_line_conductor:522;
	phaseC_conductor overhead_line_conductor:522;
	phaseN_conductor overhead_line_conductor:522;
	line_spacing line_spacing:692;
}

# Line Configuration
object line_configuration:694 {
	phaseA_conductor overhead_line_conductor:525;
	phaseB_conductor overhead_line_conductor:525;
	phaseC_conductor overhead_line_conductor:525;
	phaseN_conductor overhead_line_conductor:525;
	line_spacing line_spacing:653;
}

# Line Configuration
object line_configuration:696 {
	phaseA_conductor overhead_line_conductor:531;
	phaseB_conductor overhead_line_conductor:531;
	phaseC_conductor overhead_line_conductor:531;
	phaseN_conductor overhead_line_conductor:528;
	line_spacing line_spacing:695;
}

# Line Configuration
object line_configuration:697 {
	phaseA_conductor overhead_line_conductor:521;
	phaseB_conductor overhead_line_conductor:521;
	phaseC_conductor overhead_line_conductor:521;
	phaseN_conductor overhead_line_conductor:521;
	line_spacing line_spacing:670;
}

# Line Configuration
object line_configuration:698 {
	phaseC_conductor overhead_line_conductor:514;
	phaseN_conductor overhead_line_conductor:514;
	line_spacing line_spacing:666;
}

# Line Configuration
object line_configuration:699 {
	phaseA_conductor overhead_line_conductor:524;
	phaseB_conductor overhead_line_conductor:524;
	phaseC_conductor overhead_line_conductor:524;
	phaseN_conductor overhead_line_conductor:537;
	line_spacing line_spacing:670;
}

# Line Configuration
object line_configuration:700 {
	phaseA_conductor overhead_line_conductor:513;
	phaseN_conductor overhead_line_conductor:513;
	line_spacing line_spacing:659;
}

# Line Configuration
object line_configuration:701 {
	phaseB_conductor overhead_line_conductor:513;
	phaseN_conductor overhead_line_conductor:513;
	line_spacing line_spacing:663;
}

# Line Configuration
object line_configuration:702 {
	phaseC_conductor overhead_line_conductor:513;
	phaseN_conductor overhead_line_conductor:513;
	line_spacing line_spacing:666;
}

# Line Configuration
object line_configuration:703 {
	phaseA_conductor overhead_line_conductor:521;
	phaseN_conductor overhead_line_conductor:521;
	line_spacing line_spacing:659;
}

# Line Configuration
object line_configuration:704 {
	phaseA_conductor overhead_line_conductor:514;
	phaseB_conductor overhead_line_conductor:514;
	phaseC_conductor overhead_line_conductor:514;
	phaseN_conductor overhead_line_conductor:514;
	line_spacing line_spacing:670;
}

# Line Configuration
object line_configuration:705 {
	phaseC_conductor overhead_line_conductor:516;
	phaseN_conductor overhead_line_conductor:516;
	line_spacing line_spacing:666;
}

# Line Configuration
object line_configuration:707 {
	phaseA_conductor overhead_line_conductor:531;
	phaseB_conductor overhead_line_conductor:531;
	phaseC_conductor overhead_line_conductor:531;
	phaseN_conductor overhead_line_conductor:528;
	line_spacing line_spacing:706;
}

# overhead_line: BRIA1010553
object overhead_line:708 {
	phases "AN";
	from load:407;
	to load:333;
	length 19.47686586683;
	configuration line_configuration:652;
}

# overhead_line: BRIA1010555
object overhead_line:709 {
	phases "ABCN";
	from load:409;
	to load:309;
	length 175.97062191735;
	configuration line_configuration:654;
}

# overhead_line: BRIA1010557
object overhead_line:710 {
	phases "ABCN";
	from load:309;
	to load:499;
	length 204.106512353176;
	configuration line_configuration:654;
}

# overhead_line: BRIA1010558
object overhead_line:711 {
	phases "ABCN";
	from load:310;
	to load:311;
	length 179.530788014218;
	configuration line_configuration:654;
}

# overhead_line: BRIA1010560
object overhead_line:712 {
	phases "ABCN";
	from load:311;
	to load:312;
	length 126.795202156859;
	configuration line_configuration:654;
}

# overhead_line: BRIA1010561
object overhead_line:713 {
	phases "ABCN";
	from load:312;
	to load:313;
	length 138.298773837664;
	configuration line_configuration:654;
}

# overhead_line: BRIA1010563
object overhead_line:714 {
	phases "BN";
	from load:313;
	to load:340;
	length 12.7552317893399;
	configuration line_configuration:656;
}

# overhead_line: BRIA1010564
object overhead_line:715 {
	phases "BN";
	from load:314;
	to load:341;
	length 23.4518813105362;
	configuration line_configuration:656;
}

# overhead_line: BRIA1010565
object overhead_line:716 {
	phases "BN";
	from load:314;
	to load:315;
	length 223.429267610587;
	configuration line_configuration:656;
}

# overhead_line: BRIA1010567
object overhead_line:717 {
	phases "BN";
	from load:315;
	to load:316;
	length 191.18870113052;
	configuration line_configuration:656;
}

# overhead_line: BRIA1010569
object overhead_line:718 {
	phases "BN";
	from load:316;
	to load:317;
	length 227.72470253799;
	configuration line_configuration:656;
}

# overhead_line: BRIA1010571
object overhead_line:719 {
	phases "AN";
	from load:409;
	to load:335;
	length 9.9799090676356;
	configuration line_configuration:652;
}

# overhead_line: BRIA1010572
object overhead_line:720 {
	phases "CN";
	from load:409;
	to load:336;
	length 5.04189775776021;
	configuration line_configuration:658;
}

# overhead_line: BRIA1010575
object overhead_line:721 {
	phases "AN";
	from load:335;
	to load:319;
	length 205.158316427877;
	configuration line_configuration:660;
}

# overhead_line: BRIA1010581
object overhead_line:722 {
	phases "AN";
	from load:319;
	to load:320;
	length 186.716605008849;
	configuration line_configuration:660;
}

# overhead_line: BRIA1010584
object overhead_line:723 {
	phases "AN";
	from load:320;
	to load:321;
	length 167.709954655412;
	configuration line_configuration:660;
}

# overhead_line: BRIA1010586
object overhead_line:724 {
	phases "AN";
	from load:310;
	to load:337;
	length 18.1374755133926;
	configuration line_configuration:652;
}

# overhead_line: BRIA1010588
object overhead_line:725 {
	phases "AN";
	from load:322;
	to load:323;
	length 116.794236749954;
	configuration line_configuration:652;
}

# overhead_line: BRIA1010589
object overhead_line:726 {
	phases "AN";
	from load:323;
	to load:494;
	length 108.154892307401;
	configuration line_configuration:652;
}

# overhead_line: BRIA1010591
object overhead_line:727 {
	phases "AN";
	from load:324;
	to load:482;
	length 126.41029414172;
	configuration line_configuration:652;
}

# overhead_line: BRIA1010593
object overhead_line:728 {
	phases "AN";
	from load:323;
	to load:326;
	length 110.431691633357;
	configuration line_configuration:652;
}

# overhead_line: BRIA1010595
object overhead_line:729 {
	phases "AN";
	from load:323;
	to load:327;
	length 139.829439632407;
	configuration line_configuration:652;
}

# overhead_line: BRIA1010597
object overhead_line:730 {
	phases "ABCN";
	from load:312;
	to load:339;
	length 7.0868461953982;
	configuration line_configuration:662;
}

# overhead_line: BRIA1010599
object overhead_line:731 {
	phases "ABCN";
	from load:328;
	to load:329;
	length 93.7602466347382;
	configuration line_configuration:662;
}

# overhead_line: BRIA1010603
object overhead_line:732 {
	phases "AN";
	from load:312;
	to load:338;
	length 19.3386153848693;
	configuration line_configuration:652;
}

# overhead_line: BRIA1010606
object overhead_line:733 {
	phases "BN";
	from load:341;
	to load:331;
	length 104.627516902579;
	configuration line_configuration:664;
}

# overhead_line: BRIA1010716
object overhead_line:734 {
	phases "ABCN";
	from load:404;
	to node:332;
	length 3.1434988467499;
	configuration line_configuration:665;
}

# overhead_line: BRIA1010718
object overhead_line:735 {
	phases "AN";
	from load:333;
	to load:308;
	length 139.798603637072;
	configuration line_configuration:652;
}

# overhead_line: BRIA1010720
object overhead_line:736 {
	phases "ABCN";
	from load:334;
	to load:407;
	length 106.926253699692;
	configuration line_configuration:654;
}

# overhead_line: BRIA1010724
object overhead_line:737 {
	phases "CN";
	from load:336;
	to load:318;
	length 178.909814809713;
	configuration line_configuration:658;
}

# overhead_line: BRIA1010726
object overhead_line:738 {
	phases "AN";
	from load:337;
	to load:322;
	length 130.468444713547;
	configuration line_configuration:652;
}

# overhead_line: BRIA1010728
object overhead_line:739 {
	phases "AN";
	from load:338;
	to load:330;
	length 130.138482702854;
	configuration line_configuration:652;
}

# overhead_line: BRIA1010730
object overhead_line:740 {
	phases "ABCN";
	from load:339;
	to load:328;
	length 237.946988824911;
	configuration line_configuration:662;
}

# overhead_line: BRIA1010732
object overhead_line:741 {
	phases "BN";
	from load:340;
	to load:314;
	length 76.1776918401698;
	configuration line_configuration:656;
}

# overhead_line: BRIA1010854
object overhead_line:742 {
	phases "CN";
	from load:342;
	to node:447;
	length 218.783617207733;
	configuration line_configuration:667;
}

# overhead_line: BRIA1010857
object overhead_line:743 {
	phases "CN";
	from load:343;
	to load:342;
	length 116.721970493144;
	configuration line_configuration:667;
}

# overhead_line: BRIA1010863
object overhead_line:744 {
	phases "CN";
	from load:342;
	to load:345;
	length 186.174539893017;
	configuration line_configuration:667;
}

# overhead_line: BRIA1010866
object overhead_line:745 {
	phases "CN";
	from load:343;
	to load:346;
	length 401.518968252468;
	configuration line_configuration:667;
}

# overhead_line: BRIA1010869
object overhead_line:746 {
	phases "CN";
	from load:346;
	to load:347;
	length 176.378295612641;
	configuration line_configuration:667;
}

# overhead_line: BRIA1010872
object overhead_line:747 {
	phases "AN";
	from load:344;
	to load:348;
	length 418.384602711368;
	configuration line_configuration:668;
}

# overhead_line: BRIA1010875
object overhead_line:748 {
	phases "AN";
	from load:348;
	to load:349;
	length 170.928577549934;
	configuration line_configuration:668;
}

# overhead_line: BRIA1010878
object overhead_line:749 {
	phases "AN";
	from load:348;
	to load:350;
	length 349.024622287598;
	configuration line_configuration:668;
}

# overhead_line: BRIA1010884
object overhead_line:750 {
	phases "BN";
	from load:351;
	to load:352;
	length 495.703865032586;
	configuration line_configuration:669;
}

# overhead_line: BRIA1010887
object overhead_line:751 {
	phases "BN";
	from load:352;
	to load:353;
	length 279.844324606417;
	configuration line_configuration:669;
}

# overhead_line: BRIA1010890
object overhead_line:752 {
	phases "BN";
	from load:353;
	to load:354;
	length 246.900217726265;
	configuration line_configuration:669;
}

# overhead_line: BRIA1010893
object overhead_line:753 {
	phases "BN";
	from load:352;
	to load:355;
	length 228.482802264593;
	configuration line_configuration:669;
}

# overhead_line: BRIA1010898
object overhead_line:754 {
	phases "ABCN";
	from node:400;
	to load:356;
	length 201.881866199418;
	configuration line_configuration:671;
}

# overhead_line: BRIA1010900
object overhead_line:755 {
	phases "ABCN";
	from node:357;
	to node:401;
	length 26.4631901327317;
	configuration line_configuration:672;
}

# overhead_line: BRIA1010902
object overhead_line:756 {
	phases "ABCN";
	from load:358;
	to load:359;
	length 35.7214330058914;
	configuration line_configuration:671;
}

# overhead_line: BRIA1010905
object overhead_line:757 {
	phases "AN";
	from load:356;
	to load:360;
	length 246.08748011078;
	configuration line_configuration:668;
}

# overhead_line: BRIA1010908
object overhead_line:758 {
	phases "AN";
	from load:360;
	to load:361;
	length 265.320670094405;
	configuration line_configuration:668;
}

# overhead_line: BRIA1010911
object overhead_line:759 {
	phases "AN";
	from load:360;
	to load:362;
	length 342.995842985496;
	configuration line_configuration:668;
}

# overhead_line: BRIA1010914
object overhead_line:760 {
	phases "AN";
	from load:361;
	to load:363;
	length 207.595000238488;
	configuration line_configuration:668;
}

# overhead_line: BRIA1010917
object overhead_line:761 {
	phases "AN";
	from load:363;
	to load:364;
	length 270.419269566943;
	configuration line_configuration:668;
}

# overhead_line: BRIA1010920
object overhead_line:762 {
	phases "AN";
	from load:364;
	to node:476;
	length 232.103857318394;
	configuration line_configuration:668;
}

# overhead_line: BRIA1010922
object overhead_line:763 {
	phases "BN";
	from load:366;
	to node:365;
	length 37.6779310604885;
	configuration line_configuration:669;
}

# overhead_line: BRIA1010925
object overhead_line:764 {
	phases "BN";
	from load:367;
	to load:366;
	length 339.429708992313;
	configuration line_configuration:669;
}

# overhead_line: BRIA1010928
object overhead_line:765 {
	phases "BN";
	from load:368;
	to load:367;
	length 255.824260289008;
	configuration line_configuration:669;
}

# overhead_line: BRIA1010931
object overhead_line:766 {
	phases "BN";
	from load:369;
	to load:368;
	length 148.532663966591;
	configuration line_configuration:669;
}

# overhead_line: BRIA1010935
object overhead_line:767 {
	phases "ABCN";
	from load:358;
	to load:370;
	length 170.686114140568;
	configuration line_configuration:671;
}

# overhead_line: BRIA1010939
object overhead_line:768 {
	phases "ABCN";
	from load:370;
	to load:371;
	length 193.947950215711;
	configuration line_configuration:671;
}

# overhead_line: BRIA1010942
object overhead_line:769 {
	phases "ABCN";
	from load:371;
	to load:372;
	length 339.722380258368;
	configuration line_configuration:671;
}

# overhead_line: BRIA1010945
object overhead_line:770 {
	phases "ABCN";
	from load:372;
	to load:373;
	length 281.684143705116;
	configuration line_configuration:671;
}

# overhead_line: BRIA1010948
object overhead_line:771 {
	phases "ABCN";
	from load:373;
	to load:374;
	length 309.87574978014;
	configuration line_configuration:671;
}

# overhead_line: BRIA1010951
object overhead_line:772 {
	phases "ABCN";
	from load:374;
	to load:375;
	length 160.359706442179;
	configuration line_configuration:671;
}

# overhead_line: BRIA1010953
object overhead_line:773 {
	phases "BN";
	from load:375;
	to load:376;
	length 188.843366987623;
	configuration line_configuration:669;
}

# overhead_line: BRIA1010956
object overhead_line:774 {
	phases "BN";
	from load:376;
	to load:377;
	length 246.263742427052;
	configuration line_configuration:669;
}

# overhead_line: BRIA1010959
object overhead_line:775 {
	phases "BN";
	from load:377;
	to load:378;
	length 323.808725848357;
	configuration line_configuration:669;
}

# overhead_line: BRIA1010962
object overhead_line:776 {
	phases "AN";
	from load:372;
	to load:379;
	length 317.666392353778;
	configuration line_configuration:668;
}

# overhead_line: BRIA1010965
object overhead_line:777 {
	phases "AN";
	from load:371;
	to load:380;
	length 269.08530860021;
	configuration line_configuration:668;
}

# overhead_line: BRIA1010968
object overhead_line:778 {
	phases "AN";
	from load:380;
	to load:381;
	length 370.297448511872;
	configuration line_configuration:668;
}

# overhead_line: BRIA1010971
object overhead_line:779 {
	phases "BCN";
	from load:359;
	to load:382;
	length 212.158893666976;
	configuration line_configuration:674;
}

# overhead_line: BRIA1010974
object overhead_line:780 {
	phases "BCN";
	from load:382;
	to load:383;
	length 204.971414608956;
	configuration line_configuration:674;
}

# overhead_line: BRIA1010977
object overhead_line:781 {
	phases "BCN";
	from load:383;
	to load:384;
	length 155.691233998968;
	configuration line_configuration:674;
}

# overhead_line: BRIA1010980
object overhead_line:782 {
	phases "CN";
	from load:382;
	to load:385;
	length 178.147930065104;
	configuration line_configuration:667;
}

# overhead_line: BRIA1010983
object overhead_line:783 {
	phases "CN";
	from load:383;
	to load:386;
	length 201.129505497916;
	configuration line_configuration:667;
}

# overhead_line: BRIA1010986
object overhead_line:784 {
	phases "BN";
	from load:384;
	to load:387;
	length 179.923674549077;
	configuration line_configuration:669;
}

# overhead_line: BRIA1010989
object overhead_line:785 {
	phases "BN";
	from load:387;
	to load:388;
	length 160.747098875824;
	configuration line_configuration:669;
}

# overhead_line: BRIA1010992
object overhead_line:786 {
	phases "BN";
	from load:388;
	to load:389;
	length 170.160987760573;
	configuration line_configuration:669;
}

# overhead_line: BRIA1010995
object overhead_line:787 {
	phases "BN";
	from load:389;
	to load:390;
	length 318.609843233132;
	configuration line_configuration:669;
}

# overhead_line: BRIA1010998
object overhead_line:788 {
	phases "BN";
	from load:390;
	to load:391;
	length 386.915566405771;
	configuration line_configuration:669;
}

# overhead_line: BRIA1011001
object overhead_line:789 {
	phases "BN";
	from load:387;
	to load:392;
	length 372.851370891137;
	configuration line_configuration:669;
}

# overhead_line: BRIA1011004
object overhead_line:790 {
	phases "BN";
	from load:389;
	to load:393;
	length 319.810082762919;
	configuration line_configuration:669;
}

# overhead_line: BRIA1011007
object overhead_line:791 {
	phases "BN";
	from load:393;
	to load:394;
	length 176.172957224098;
	configuration line_configuration:669;
}

# overhead_line: BRIA1011010
object overhead_line:792 {
	phases "BN";
	from load:394;
	to load:395;
	length 245.002858754065;
	configuration line_configuration:669;
}

# overhead_line: BRIA1011013
object overhead_line:793 {
	phases "BN";
	from load:390;
	to load:396;
	length 145.00178068987;
	configuration line_configuration:669;
}

# overhead_line: BRIA1011016
object overhead_line:794 {
	phases "BN";
	from load:396;
	to load:397;
	length 111.153152318375;
	configuration line_configuration:669;
}

# overhead_line: BRIA1011018
object overhead_line:795 {
	phases "ABCN";
	from node:449;
	to node:399;
	length 1464.2951928668;
	configuration line_configuration:672;
}

# overhead_line: BRIA1011019
object overhead_line:796 {
	phases "ABCN";
	from node:357;
	to node:398;
	length 18.2737545402905;
	configuration line_configuration:672;
}

# overhead_line: BRIA1011033
object overhead_line:797 {
	phases "ABCN";
	from node:399;
	to node:357;
	length 22.4286686168423;
	configuration line_configuration:672;
}

# overhead_line: BRIA1011036
object overhead_line:798 {
	phases "ABCN";
	from node:357;
	to node:400;
	length 27.8839977944252;
	configuration line_configuration:672;
}

# overhead_line: BRIA1011038
object overhead_line:799 {
	phases "ABCN";
	from node:401;
	to load:358;
	length 152.852877819554;
	configuration line_configuration:671;
}

# overhead_line: BRIA1153659
object overhead_line:800 {
	phases "CN";
	from load:291;
	to load:254;
	length 98.8146989451483;
	configuration line_configuration:658;
}

# overhead_line: BRIA165876
object overhead_line:801 {
	phases "ABCN";
	from load:4;
	to node:5;
	length 168.388556751928;
	configuration line_configuration:665;
}

# overhead_line: BRIA165878
object overhead_line:802 {
	phases "AN";
	from load:49;
	to load:6;
	length 85.5589717183841;
	configuration line_configuration:668;
}

# overhead_line: BRIA165881
object overhead_line:803 {
	phases "AN";
	from load:6;
	to load:7;
	length 147.901944296609;
	configuration line_configuration:668;
}

# overhead_line: BRIA165884
object overhead_line:804 {
	phases "AN";
	from load:7;
	to load:8;
	length 128.846834817381;
	configuration line_configuration:668;
}

# overhead_line: BRIA165887
object overhead_line:805 {
	phases "AN";
	from load:8;
	to load:9;
	length 74.2505580292574;
	configuration line_configuration:668;
}

# overhead_line: BRIA165890
object overhead_line:806 {
	phases "AN";
	from load:9;
	to load:10;
	length 188.985798088973;
	configuration line_configuration:668;
}

# overhead_line: BRIA165893
object overhead_line:807 {
	phases "AN";
	from load:10;
	to load:11;
	length 148.497433702156;
	configuration line_configuration:668;
}

# overhead_line: BRIA165895
object overhead_line:808 {
	phases "ABCN";
	from node:5;
	to load:12;
	length 185.599388536059;
	configuration line_configuration:665;
}

# overhead_line: BRIA165897
object overhead_line:809 {
	phases "AN";
	from load:52;
	to load:13;
	length 70.8997580290811;
	configuration line_configuration:668;
}

# overhead_line: BRIA165900
object overhead_line:810 {
	phases "AN";
	from load:13;
	to load:14;
	length 142.046596840197;
	configuration line_configuration:668;
}

# overhead_line: BRIA165903
object overhead_line:811 {
	phases "AN";
	from load:14;
	to load:15;
	length 127.883791542034;
	configuration line_configuration:668;
}

# overhead_line: BRIA165905
object overhead_line:812 {
	phases "AN";
	from load:14;
	to load:16;
	length 145.302901684983;
	configuration line_configuration:668;
}

# overhead_line: BRIA165909
object overhead_line:813 {
	phases "AN";
	from load:16;
	to load:17;
	length 50.3565838794321;
	configuration line_configuration:668;
}

# overhead_line: BRIA165911
object overhead_line:814 {
	phases "AN";
	from load:17;
	to node:445;
	length 328.05669053706;
	configuration line_configuration:668;
}

# overhead_line: BRIA165913
object overhead_line:815 {
	phases "BN";
	from load:19;
	to load:468;
	length 159.475227474382;
	configuration line_configuration:675;
}

# overhead_line: BRIA165917
object overhead_line:816 {
	phases "BN";
	from load:56;
	to load:21;
	length 193.570114603964;
	configuration line_configuration:664;
}

# overhead_line: BRIA165920
object overhead_line:817 {
	phases "BN";
	from load:20;
	to load:22;
	length 170.224131503141;
	configuration line_configuration:676;
}

# overhead_line: BRIA165923
object overhead_line:818 {
	phases "BN";
	from load:22;
	to load:23;
	length 154.939258114255;
	configuration line_configuration:676;
}

# overhead_line: BRIA165925
object overhead_line:819 {
	phases "BN";
	from load:23;
	to load:24;
	length 144.012990195306;
	configuration line_configuration:676;
}

# overhead_line: BRIA165927
object overhead_line:820 {
	phases "BN";
	from load:24;
	to load:25;
	length 145.573669064895;
	configuration line_configuration:676;
}

# overhead_line: BRIA165929
object overhead_line:821 {
	phases "BN";
	from load:25;
	to load:27;
	length 123.128522325173;
	configuration line_configuration:676;
}

# overhead_line: BRIA165931
object overhead_line:822 {
	phases "BN";
	from load:27;
	to load:28;
	length 118.120414175573;
	configuration line_configuration:676;
}

# overhead_line: BRIA165933
object overhead_line:823 {
	phases "BN";
	from load:28;
	to load:483;
	length 234.991554199258;
	configuration line_configuration:676;
}

# overhead_line: BRIA165937
object overhead_line:824 {
	phases "BN";
	from load:484;
	to load:29;
	length 334.458544874004;
	configuration line_configuration:669;
}

# overhead_line: BRIA165940
object overhead_line:825 {
	phases "BN";
	from load:29;
	to load:30;
	length 197.852154676188;
	configuration line_configuration:669;
}

# overhead_line: BRIA165943
object overhead_line:826 {
	phases "BN";
	from load:29;
	to load:31;
	length 219.867911440385;
	configuration line_configuration:669;
}

# overhead_line: BRIA165946
object overhead_line:827 {
	phases "BN";
	from load:31;
	to load:32;
	length 289.282725154955;
	configuration line_configuration:669;
}

# overhead_line: BRIA165949
object overhead_line:828 {
	phases "BN";
	from load:32;
	to load:33;
	length 146.947094088334;
	configuration line_configuration:669;
}

# overhead_line: BRIA165952
object overhead_line:829 {
	phases "BN";
	from load:33;
	to load:34;
	length 138.34483065508;
	configuration line_configuration:669;
}

# overhead_line: BRIA165955
object overhead_line:830 {
	phases "BN";
	from load:34;
	to load:35;
	length 148.010902136725;
	configuration line_configuration:669;
}

# overhead_line: BRIA165958
object overhead_line:831 {
	phases "BN";
	from load:32;
	to load:36;
	length 248.756995589669;
	configuration line_configuration:669;
}

# overhead_line: BRIA165961
object overhead_line:832 {
	phases "BN";
	from load:36;
	to load:37;
	length 117.044037978915;
	configuration line_configuration:669;
}

# overhead_line: BRIA165964
object overhead_line:833 {
	phases "BN";
	from load:37;
	to load:38;
	length 182.979128525657;
	configuration line_configuration:669;
}

# overhead_line: BRIA165966
object overhead_line:834 {
	phases "BN";
	from load:483;
	to node:39;
	length 336.122879680961;
	configuration line_configuration:676;
}

# overhead_line: BRIA165969
object overhead_line:835 {
	phases "BN";
	from node:39;
	to node:40;
	length 182.33616050029;
	configuration line_configuration:676;
}

# overhead_line: BRIA165971
object overhead_line:836 {
	phases "BN";
	from load:41;
	to load:42;
	length 166.529990539178;
	configuration line_configuration:675;
}

# overhead_line: BRIA165973
object overhead_line:837 {
	phases "ABCN";
	from load:18;
	to load:43;
	length 184.427601310168;
	configuration line_configuration:678;
}

# overhead_line: BRIA165975
object overhead_line:838 {
	phases "ABCN";
	from load:43;
	to load:44;
	length 314.120746328419;
	configuration line_configuration:678;
}

# overhead_line: BRIA165979
object overhead_line:839 {
	phases "BN";
	from node:55;
	to load:435;
	length 35.1304359801816;
	configuration line_configuration:679;
}

# overhead_line: BRIA165981
object overhead_line:840 {
	phases "ABCN";
	from load:44;
	to node:46;
	length 188.09443752816;
	configuration line_configuration:678;
}

# overhead_line: BRIA165983
object overhead_line:841 {
	phases "ABCN";
	from node:46;
	to load:490;
	length 230.284707909564;
	configuration line_configuration:678;
}

# overhead_line: BRIA166015
object overhead_line:842 {
	phases "CN";
	from load:4;
	to load:48;
	length 19.0795585117078;
	configuration line_configuration:680;
}

# overhead_line: BRIA166018
object overhead_line:843 {
	phases "AN";
	from node:5;
	to load:49;
	length 20.1808658139308;
	configuration line_configuration:681;
}

# overhead_line: BRIA166023
object overhead_line:844 {
	phases "AN";
	from node:51;
	to load:52;
	length 19.2458612875237;
	configuration line_configuration:681;
}

# overhead_line: BRIA166026
object overhead_line:845 {
	phases "ABCN";
	from node:51;
	to node:53;
	length 21.1721018560692;
	configuration line_configuration:654;
}

# overhead_line: BRIA166027
object overhead_line:846 {
	phases "ABCN";
	from node:53;
	to load:18;
	length 70.7276110203497;
	configuration line_configuration:678;
}

# overhead_line: BRIA166029
object overhead_line:847 {
	phases "BN";
	from load:18;
	to load:54;
	length 25.0899350737245;
	configuration line_configuration:675;
}

# overhead_line: BRIA166030
object overhead_line:848 {
	phases "BN";
	from load:54;
	to load:19;
	length 126.861083493631;
	configuration line_configuration:675;
}

# overhead_line: BRIA166032
object overhead_line:849 {
	phases "BN";
	from load:44;
	to node:55;
	length 21.0140746167557;
	configuration line_configuration:683;
}

# overhead_line: BRIA166035
object overhead_line:850 {
	phases "BN";
	from load:20;
	to load:56;
	length 6.41022963720977;
	configuration line_configuration:675;
}

# overhead_line: BRIA166044
object overhead_line:851 {
	phases "BN";
	from load:25;
	to load:57;
	length 8.04904721069076;
	configuration line_configuration:656;
}

# overhead_line: BRIA166045
object overhead_line:852 {
	phases "BN";
	from load:57;
	to load:26;
	length 379.125397236629;
	configuration line_configuration:656;
}

# overhead_line: BRIA166051
object overhead_line:853 {
	phases "BN";
	from node:40;
	to load:58;
	length 19.6784711041821;
	configuration line_configuration:675;
}

# overhead_line: BRIA166052
object overhead_line:854 {
	phases "BN";
	from load:58;
	to load:41;
	length 157.196015540475;
	configuration line_configuration:675;
}

# overhead_line: BRIA166121
object overhead_line:855 {
	phases "ABCN";
	from load:12;
	to load:59;
	length 166.745729492634;
	configuration line_configuration:665;
}

# overhead_line: BRIA166122
object overhead_line:856 {
	phases "ABCN";
	from load:59;
	to node:51;
	length 162.895724231803;
	configuration line_configuration:665;
}

# overhead_line: BRIA166126
object overhead_line:857 {
	phases "CN";
	from load:48;
	to load:436;
	length 334.117109271302;
	configuration line_configuration:667;
}

# overhead_line: BRIA166127
object overhead_line:858 {
	phases "ABCN";
	from load:60;
	to load:4;
	length 62.6897098413952;
	configuration line_configuration:665;
}

# overhead_line: BRIA166128
object overhead_line:859 {
	phases "BN";
	from load:12;
	to load:50;
	length 6.74849820332485;
	configuration line_configuration:675;
}

# overhead_line: BRIA3076240
object overhead_line:860 {
	phases "ABCN";
	from node:137;
	to load:138;
	length 89.343839561371;
	configuration line_configuration:684;
}

# overhead_line: BRIA925616
object overhead_line:861 {
	phases "CN";
	from node:98;
	to load:119;
	length 19.3858992568856;
	configuration line_configuration:685;
}

# overhead_line: BRIA925618
object overhead_line:862 {
	phases "CN";
	from load:119;
	to load:99;
	length 265.253316196165;
	configuration line_configuration:686;
}

# overhead_line: BRIA925621
object overhead_line:863 {
	phases "CN";
	from load:99;
	to load:100;
	length 282.049537564932;
	configuration line_configuration:686;
}

# overhead_line: BRIA925625
object overhead_line:864 {
	phases "ABCN";
	from load:101;
	to load:102;
	length 125.234946021486;
	configuration line_configuration:687;
}

# overhead_line: BRIA925627
object overhead_line:865 {
	phases "CN";
	from load:102;
	to load:121;
	length 20.271373165081;
	configuration line_configuration:658;
}

# overhead_line: BRIA925629
object overhead_line:866 {
	phases "CN";
	from load:103;
	to load:104;
	length 253.298691976457;
	configuration line_configuration:658;
}

# overhead_line: BRIA925631
object overhead_line:867 {
	phases "ABCN";
	from load:102;
	to load:105;
	length 163.075210335606;
	configuration line_configuration:687;
}

# overhead_line: BRIA925633
object overhead_line:868 {
	phases "CN";
	from load:105;
	to load:123;
	length 19.8523401455836;
	configuration line_configuration:658;
}

# overhead_line: BRIA925635
object overhead_line:869 {
	phases "CN";
	from load:106;
	to load:122;
	length 12.5400349680392;
	configuration line_configuration:658;
}

# overhead_line: BRIA925637
object overhead_line:870 {
	phases "CN";
	from load:122;
	to load:116;
	length 117.564774955696;
	configuration line_configuration:667;
}

# overhead_line: BRIA925640
object overhead_line:871 {
	phases "ABCN";
	from load:105;
	to node:108;
	length 168.259586264801;
	configuration line_configuration:687;
}

# overhead_line: BRIA925641
object overhead_line:872 {
	phases "ABCN";
	from node:108;
	to load:109;
	length 195.637260581926;
	configuration line_configuration:687;
}

# overhead_line: BRIA925642
object overhead_line:873 {
	phases "ABCN";
	from load:109;
	to load:110;
	length 157.48844905578;
	configuration line_configuration:687;
}

# overhead_line: BRIA925644
object overhead_line:874 {
	phases "ABCN";
	from load:110;
	to load:111;
	length 210.169093191665;
	configuration line_configuration:687;
}

# overhead_line: BRIA925646
object overhead_line:875 {
	phases "ABCN";
	from load:111;
	to load:112;
	length 194.141314379459;
	configuration line_configuration:687;
}

# overhead_line: BRIA925648
object overhead_line:876 {
	phases "ABCN";
	from load:112;
	to load:113;
	length 122.656565238074;
	configuration line_configuration:687;
}

# overhead_line: BRIA925650
object overhead_line:877 {
	phases "ABCN";
	from load:113;
	to load:114;
	length 189.634167145606;
	configuration line_configuration:687;
}

# overhead_line: BRIA925652
object overhead_line:878 {
	phases "ABCN";
	from load:114;
	to node:115;
	length 157.108445746844;
	configuration line_configuration:687;
}

# overhead_line: BRIA926050
object overhead_line:879 {
	phases "CN";
	from load:116;
	to load:107;
	length 245.062403231966;
	configuration line_configuration:667;
}

# overhead_line: BRIA926055
object overhead_line:880 {
	phases "AN";
	from load:199;
	to load:117;
	length 175.98348928284;
	configuration line_configuration:652;
}

# overhead_line: BRIA926057
object overhead_line:881 {
	phases "ABCN";
	from load:118;
	to load:97;
	length 157.812980647496;
	configuration line_configuration:687;
}

# overhead_line: BRIA926061
object overhead_line:882 {
	phases "AN";
	from node:98;
	to load:120;
	length 12.5595324752713;
	configuration line_configuration:652;
}

# overhead_line: BRIA926067
object overhead_line:883 {
	phases "CN";
	from load:121;
	to load:103;
	length 246.39721422262;
	configuration line_configuration:658;
}

# overhead_line: BRIA926078
object overhead_line:884 {
	phases "CN";
	from load:123;
	to load:106;
	length 237.93143531535;
	configuration line_configuration:658;
}

# overhead_line: BRIA926145
object overhead_line:885 {
	phases "AN";
	from load:124;
	to node:125;
	length 102.078535966156;
	configuration line_configuration:689;
}

# overhead_line: BRIA926146
object overhead_line:886 {
	phases "AN";
	from node:125;
	to load:202;
	length 17.7607933382744;
	configuration line_configuration:689;
}

# overhead_line: BRIA926148
object overhead_line:887 {
	phases "AN";
	from load:126;
	to load:403;
	length 211.283937612261;
	configuration line_configuration:689;
}

# overhead_line: BRIA926151
object overhead_line:888 {
	phases "AN";
	from load:403;
	to load:200;
	length 19.564988755406;
	configuration line_configuration:652;
}

# overhead_line: BRIA926154
object overhead_line:889 {
	phases "AN";
	from node:125;
	to load:201;
	length 15.0920453550911;
	configuration line_configuration:689;
}

# overhead_line: BRIA926157
object overhead_line:890 {
	phases "AN";
	from load:201;
	to load:128;
	length 92.32336918927;
	configuration line_configuration:690;
}

# overhead_line: BRIA926159
object overhead_line:891 {
	phases "AN";
	from load:403;
	to load:129;
	length 93.2496455166762;
	configuration line_configuration:689;
}

# overhead_line: BRIA926160
object overhead_line:892 {
	phases "AN";
	from load:129;
	to load:130;
	length 87.8661437415853;
	configuration line_configuration:689;
}

# overhead_line: BRIA926162
object overhead_line:893 {
	phases "AN";
	from load:130;
	to load:131;
	length 85.8815864083844;
	configuration line_configuration:689;
}

# overhead_line: BRIA926163
object overhead_line:894 {
	phases "AN";
	from load:131;
	to load:426;
	length 173.18701706518;
	configuration line_configuration:689;
}

# overhead_line: BRIA926166
object overhead_line:895 {
	phases "AN";
	from load:129;
	to load:199;
	length 5.9356935567571;
	configuration line_configuration:652;
}

# overhead_line: BRIA926168
object overhead_line:896 {
	phases "AN";
	from load:132;
	to node:133;
	length 100.04016515888;
	configuration line_configuration:689;
}

# overhead_line: BRIA926169
object overhead_line:897 {
	phases "AN";
	from node:133;
	to load:134;
	length 158.138313589755;
	configuration line_configuration:689;
}

# overhead_line: BRIA926174
object overhead_line:898 {
	phases "AN";
	from load:134;
	to load:135;
	length 136.35833796645;
	configuration line_configuration:691;
}

# overhead_line: BRIA926176
object overhead_line:899 {
	phases "AN";
	from load:135;
	to node:2;
	length 172.7465566112;
	configuration line_configuration:691;
}

# overhead_line: BRIA926220
object overhead_line:900 {
	phases "ABCN";
	from node:136;
	to node:137;
	length 157.075967623967;
	configuration line_configuration:665;
}

# overhead_line: BRIA926222
object overhead_line:901 {
	phases "ABCN";
	from node:136;
	to node:431;
	length 132.076720087216;
	configuration line_configuration:665;
}

# overhead_line: BRIA926224
object overhead_line:902 {
	phases "ABCN";
	from load:138;
	to load:216;
	length 18.7937317207731;
	configuration line_configuration:687;
}

# overhead_line: BRIA926225
object overhead_line:903 {
	phases "ABCN";
	from load:138;
	to load:139;
	length 197.183721538959;
	configuration line_configuration:665;
}

# overhead_line: BRIA926228
object overhead_line:904 {
	phases "ABCN";
	from load:216;
	to load:204;
	length 103.711584813188;
	configuration line_configuration:671;
}

# overhead_line: BRIA926231
object overhead_line:905 {
	phases "ABCN";
	from load:140;
	to node:141;
	length 157.654951761924;
	configuration line_configuration:671;
}

# overhead_line: BRIA926234
object overhead_line:906 {
	phases "ABCN";
	from load:139;
	to load:142;
	length 180.392507721316;
	configuration line_configuration:665;
}

# overhead_line: BRIA926235
object overhead_line:907 {
	phases "ABCN";
	from load:142;
	to load:143;
	length 70.0871003824466;
	configuration line_configuration:665;
}

# overhead_line: BRIA926236
object overhead_line:908 {
	phases "ABCN";
	from load:143;
	to load:144;
	length 75.2747507800348;
	configuration line_configuration:665;
}

# overhead_line: BRIA926238
object overhead_line:909 {
	phases "ABCN";
	from load:144;
	to load:145;
	length 327.687315429456;
	configuration line_configuration:665;
}

# overhead_line: BRIA926239
object overhead_line:910 {
	phases "ABCN";
	from load:145;
	to load:146;
	length 433.557522887359;
	configuration line_configuration:665;
}

# overhead_line: BRIA926241
object overhead_line:911 {
	phases "ABCN";
	from load:146;
	to load:147;
	length 204.774808589745;
	configuration line_configuration:665;
}

# overhead_line: BRIA926242
object overhead_line:912 {
	phases "ABCN";
	from load:147;
	to load:148;
	length 177.315022023984;
	configuration line_configuration:684;
}

# overhead_line: BRIA926244
object overhead_line:913 {
	phases "ABCN";
	from load:148;
	to load:149;
	length 186.207778419654;
	configuration line_configuration:684;
}

# overhead_line: BRIA926246
object overhead_line:914 {
	phases "ABCN";
	from load:149;
	to load:150;
	length 259.13518010486;
	configuration line_configuration:684;
}

# overhead_line: BRIA930336
object overhead_line:915 {
	phases "CN";
	from load:263;
	to load:264;
	length 192.281628659536;
	configuration line_configuration:667;
}

# overhead_line: BRIA930339
object overhead_line:916 {
	phases "CN";
	from load:264;
	to load:265;
	length 77.8787812244205;
	configuration line_configuration:667;
}

# overhead_line: BRIA930490
object overhead_line:917 {
	phases "ABCN";
	from load:245;
	to load:267;
	length 218.34630277738;
	configuration line_configuration:671;
}

# overhead_line: BRIA930492
object overhead_line:918 {
	phases "ABCN";
	from load:267;
	to load:268;
	length 30.1830169631472;
	configuration line_configuration:671;
}

# overhead_line: BRIA930496
object overhead_line:919 {
	phases "ACN";
	from load:267;
	to load:269;
	length 240.053681449512;
	configuration line_configuration:693;
}

# overhead_line: BRIA930499
object overhead_line:920 {
	phases "ACN";
	from load:269;
	to load:270;
	length 206.823344941878;
	configuration line_configuration:693;
}

# overhead_line: BRIA930502
object overhead_line:921 {
	phases "AN";
	from load:270;
	to load:271;
	length 299.633040486632;
	configuration line_configuration:668;
}

# overhead_line: BRIA930505
object overhead_line:922 {
	phases "AN";
	from load:271;
	to load:272;
	length 181.991348666011;
	configuration line_configuration:668;
}

# overhead_line: BRIA930508
object overhead_line:923 {
	phases "AN";
	from load:271;
	to load:273;
	length 205.725037975542;
	configuration line_configuration:668;
}

# overhead_line: BRIA930511
object overhead_line:924 {
	phases "AN";
	from load:273;
	to load:274;
	length 196.600999272183;
	configuration line_configuration:668;
}

# overhead_line: BRIA930514
object overhead_line:925 {
	phases "ACN";
	from load:270;
	to load:275;
	length 152.45728654856;
	configuration line_configuration:693;
}

# overhead_line: BRIA930517
object overhead_line:926 {
	phases "ACN";
	from load:275;
	to load:276;
	length 233.740086662634;
	configuration line_configuration:693;
}

# overhead_line: BRIA930519
object overhead_line:927 {
	phases "ACN";
	from load:276;
	to node:439;
	length 139.348759753982;
	configuration line_configuration:693;
}

# overhead_line: BRIA930523
object overhead_line:928 {
	phases "CN";
	from load:276;
	to load:277;
	length 124.969498693447;
	configuration line_configuration:667;
}

# overhead_line: BRIA930529
object overhead_line:929 {
	phases "CN";
	from load:275;
	to load:278;
	length 196.733082939554;
	configuration line_configuration:667;
}

# overhead_line: BRIA930532
object overhead_line:930 {
	phases "CN";
	from load:278;
	to load:279;
	length 119.051650196371;
	configuration line_configuration:667;
}

# overhead_line: BRIA930534
object overhead_line:931 {
	phases "ABCN";
	from load:249;
	to node:266;
	length 128.40841360683;
	configuration line_configuration:684;
}

# overhead_line: BRIA930535
object overhead_line:932 {
	phases "ABCN";
	from load:249;
	to load:305;
	length 237.363548343595;
	configuration line_configuration:694;
}

# overhead_line: BRIA930537
object overhead_line:933 {
	phases "ABCN";
	from load:305;
	to load:306;
	length 176.346312039752;
	configuration line_configuration:694;
}

# overhead_line: BRIA930538
object overhead_line:934 {
	phases "BN";
	from load:306;
	to load:300;
	length 16.688148429529;
	configuration line_configuration:675;
}

# overhead_line: BRIA930540
object overhead_line:935 {
	phases "BN";
	from load:280;
	to load:477;
	length 164.161467625682;
	configuration line_configuration:675;
}

# overhead_line: BRIA930542
object overhead_line:936 {
	phases "BN";
	from load:281;
	to load:282;
	length 162.197598625818;
	configuration line_configuration:675;
}

# overhead_line: BRIA930544
object overhead_line:937 {
	phases "BN";
	from load:282;
	to load:283;
	length 250.292928708336;
	configuration line_configuration:675;
}

# overhead_line: BRIA930546
object overhead_line:938 {
	phases "BN";
	from load:283;
	to load:284;
	length 138.670318183076;
	configuration line_configuration:675;
}

# overhead_line: BRIA930548
object overhead_line:939 {
	phases "BN";
	from load:284;
	to load:285;
	length 176.055141293786;
	configuration line_configuration:675;
}

# overhead_line: BRIA930550
object overhead_line:940 {
	phases "BN";
	from load:284;
	to load:286;
	length 143.930588444521;
	configuration line_configuration:675;
}

# overhead_line: BRIA930552
object overhead_line:941 {
	phases "BN";
	from load:286;
	to load:287;
	length 102.679050726011;
	configuration line_configuration:675;
}

# overhead_line: BRIA930554
object overhead_line:942 {
	phases "BN";
	from load:287;
	to load:288;
	length 92.0075010203504;
	configuration line_configuration:675;
}

# overhead_line: BRIA930556
object overhead_line:943 {
	phases "BN";
	from load:288;
	to load:289;
	length 130.368751547316;
	configuration line_configuration:675;
}

# overhead_line: BRIA930559
object overhead_line:944 {
	phases "ABCN";
	from load:306;
	to load:253;
	length 117.595597145504;
	configuration line_configuration:694;
}

# overhead_line: BRIA930560
object overhead_line:945 {
	phases "CN";
	from load:290;
	to load:242;
	length 97.0973990118786;
	configuration line_configuration:658;
}

# overhead_line: BRIA930564
object overhead_line:946 {
	phases "CN";
	from load:292;
	to load:257;
	length 114.907393467716;
	configuration line_configuration:658;
}

# overhead_line: BRIA930568
object overhead_line:947 {
	phases "AN";
	from node:295;
	to load:294;
	length 3.62843836932985;
	configuration line_configuration:652;
}

# overhead_line: BRIA930572
object overhead_line:948 {
	phases "AN";
	from load:243;
	to node:298;
	length 12.0003440367519;
	configuration line_configuration:652;
}

# overhead_line: BRIA930606
object overhead_line:949 {
	phases "BN";
	from load:300;
	to load:280;
	length 127.296506617186;
	configuration line_configuration:675;
}

# overhead_line: BRIA930608
object overhead_line:950 {
	phases "ABCN";
	from node:500;
	to load:301;
	length 12.2715375156864;
	configuration line_configuration:654;
}

# overhead_line: BRIA930622
object overhead_line:951 {
	phases "BN";
	from load:289;
	to node:1;
	length 174.45848974471;
	configuration line_configuration:675;
}

# overhead_line: BRIA992960
object overhead_line:952 {
	phases "ABCN";
	from node:332;
	to node:449;
	length 338.339179932703;
	configuration line_configuration:665;
}

# overhead_line: BRIA992962
object overhead_line:953 {
	phases "ABCN";
	from load:404;
	to load:405;
	length 100.903850575693;
	configuration line_configuration:665;
}

# overhead_line: BRIA992964
object overhead_line:954 {
	phases "ABCN";
	from load:405;
	to node:406;
	length 120.759598479814;
	configuration line_configuration:665;
}

# overhead_line: BRIA992965
object overhead_line:955 {
	phases "ABCN";
	from node:406;
	to load:334;
	length 12.2757628275803;
	configuration line_configuration:654;
}

# overhead_line: BRIA992966
object overhead_line:956 {
	phases "ABCN";
	from load:407;
	to load:408;
	length 108.781441712287;
	configuration line_configuration:654;
}

# overhead_line: BRIA992968
object overhead_line:957 {
	phases "ABCN";
	from load:408;
	to load:409;
	length 158.932732192017;
	configuration line_configuration:654;
}

# overhead_line: BRIA3076301
object overhead_line:958 {
	phases "ABCN";
	from node:228;
	to node:410;
	length 75.7095616484355;
	configuration line_configuration:696;
}

# overhead_line: BRIA3500454
object overhead_line:959 {
	phases "BN";
	from load:412;
	to load:411;
	length 289.360146641715;
	configuration line_configuration:679;
}

# overhead_line: BRIA3500457
object overhead_line:960 {
	phases "BN";
	from load:413;
	to load:412;
	length 349.300561821573;
	configuration line_configuration:679;
}

# overhead_line: BRIA3500459
object overhead_line:961 {
	phases "BN";
	from load:20;
	to load:414;
	length 15.7711084146705;
	configuration line_configuration:679;
}

# overhead_line: BRIA3500460
object overhead_line:962 {
	phases "BN";
	from load:414;
	to load:469;
	length 305.129572286522;
	configuration line_configuration:679;
}

# overhead_line: BRIA3502600
object overhead_line:963 {
	phases "ABCN";
	from load:293;
	to load:415;
	length 228.931426069456;
	configuration line_configuration:697;
}

# overhead_line: BRIA3502603
object overhead_line:964 {
	phases "ABCN";
	from load:241;
	to load:302;
	length 134.596160944584;
	configuration line_configuration:694;
}

# overhead_line: BRIA3502608
object overhead_line:965 {
	phases "ABCN";
	from node:416;
	to node:295;
	length 203.689077979174;
	configuration line_configuration:694;
}

# overhead_line: BRIA3502609
object overhead_line:966 {
	phases "AN";
	from node:416;
	to node:417;
	length 11.3010615430816;
	configuration line_configuration:652;
}

# overhead_line: BRIA3502610
object overhead_line:967 {
	phases "AN";
	from node:417;
	to load:66;
	length 75.7587997160606;
	configuration line_configuration:652;
}

# overhead_line: BRIA3502613
object overhead_line:968 {
	phases "ABCN";
	from node:196;
	to load:124;
	length 212.134810997627;
	configuration line_configuration:694;
}

# overhead_line: BRIA3502732
object overhead_line:969 {
	phases "BN";
	from node:418;
	to load:20;
	length 152.644227155857;
	configuration line_configuration:675;
}

# overhead_line: BRIA3576102
object overhead_line:970 {
	phases "ABCN";
	from load:420;
	to load:493;
	length 131.589795504851;
	configuration line_configuration:665;
}

# overhead_line: BRIA3576103
object overhead_line:971 {
	phases "ABCN";
	from load:420;
	to node:307;
	length 240.684456628114;
	configuration line_configuration:665;
}

# overhead_line: BRIA3583410
object overhead_line:972 {
	phases "ABCN";
	from load:252;
	to node:422;
	length 18.3017125154845;
	configuration line_configuration:697;
}

# overhead_line: BRIA3583412
object overhead_line:973 {
	phases "ABCN";
	from node:422;
	to load:473;
	length 37.8739490403664;
	configuration line_configuration:697;
}

# overhead_line: BRIA3601042
object overhead_line:974 {
	phases "ABCN";
	from node:61;
	to node:423;
	length 81.0722123220195;
	configuration line_configuration:684;
}

# overhead_line: BRIA3915217
object overhead_line:975 {
	phases "ABCN";
	from node:98;
	to load:434;
	length 91.3575530812596;
	configuration line_configuration:687;
}

# overhead_line: BRIA5020674
object overhead_line:976 {
	phases "BN";
	from load:253;
	to load:424;
	length 5.74125221513562;
	configuration line_configuration:679;
}

# overhead_line: BRIA5020676
object overhead_line:977 {
	phases "CN";
	from load:425;
	to load:177;
	length 224.80927117898;
	configuration line_configuration:667;
}

# overhead_line: BRIA5022309
object overhead_line:978 {
	phases "AN";
	from load:426;
	to load:132;
	length 91.5487121973623;
	configuration line_configuration:689;
}

# overhead_line: BRIA5034222
object overhead_line:979 {
	phases "AN";
	from load:132;
	to load:428;
	length 18.2018002680924;
	configuration line_configuration:652;
}

# overhead_line: BRIA5034223
object overhead_line:980 {
	phases "AN";
	from load:428;
	to load:433;
	length 129.77531284719;
	configuration line_configuration:652;
}

# overhead_line: BRIA7512607
object overhead_line:981 {
	phases "AN";
	from load:429;
	to load:232;
	length 416.129254126861;
	configuration line_configuration:652;
}

# overhead_line: BRIA7519943
object overhead_line:982 {
	phases "ABCN";
	from load:430;
	to load:166;
	length 178.684899546522;
	configuration line_configuration:654;
}

# overhead_line: BRIA7523993
object overhead_line:983 {
	phases "AN";
	from load:433;
	to load:427;
	length 117.351410260011;
	configuration line_configuration:652;
}

# overhead_line: BRIA7524568
object overhead_line:984 {
	phases "ABCN";
	from node:431;
	to node:432;
	length 10.0562947948448;
	configuration line_configuration:665;
}

# overhead_line: BRIA7539303
object overhead_line:985 {
	phases "ABCN";
	from load:434;
	to load:101;
	length 142.678726379434;
	configuration line_configuration:687;
}

# overhead_line: BRIA7559753
object overhead_line:986 {
	phases "BN";
	from load:435;
	to load:45;
	length 246.224000033124;
	configuration line_configuration:679;
}

# overhead_line: BRIA7559808
object overhead_line:987 {
	phases "BN";
	from load:356;
	to load:369;
	length 850.023845194499;
	configuration line_configuration:669;
}

# overhead_line: BRIA7559810
object overhead_line:988 {
	phases "BN";
	from load:356;
	to load:351;
	length 221.707316235205;
	configuration line_configuration:669;
}

# overhead_line: BRIA7559812
object overhead_line:989 {
	phases "AN";
	from load:356;
	to load:344;
	length 501.416065333913;
	configuration line_configuration:668;
}

...